CRYSTAL
# Primitive lattice vectors in Angstrom
PRIMVEC
 5.29177210670000 0.00000000000000 0.00000000000000
 0.00000000000000 5.29177210670000 0.00000000000000
 0.00000000000000 0.00000000000000 5.29177210670000
# Cartesian coordinates in Angstrom.
PRIMCOORD
 2 1
1    -0.40270385731987     0.00000000000000     0.00000000000000
1     0.40270385731987     0.00000000000000     0.00000000000000